*Heading
** Job name: Job-38-COH_ELS-NEW Model name: Model-STATIC_GEN-COH_ELES
** Generated by: Abaqus/CAE 2025
*Preprint, echo=NO, model=NO, history=NO, contact=NO
**
** PARTS
**
*Part, name=Rigid_Substrate
*Node
      1,           0.,           0.
      2,           0.,           7.
      3,         -50.,           7.
      4,         -50.,           0.
      5,          50.,           0.
      6,          50.,           7.
      7,           0.,   5.83333349
      8, -0.100000001,           7.
      9, -0.200000003,           7.
     10, -0.300000012,           7.
     11, -0.400000006,           7.
     12,         -0.5,           7.
     13, -0.600000024,           7.
     14, -0.699999988,           7.
     15, -0.800000012,           7.
     16, -0.899999976,           7.
     17,          -1.,           7.
     18,  -1.10000002,           7.
     19,  -1.20000005,           7.
     20,  -1.29999995,           7.
** ... 2983 like lines cut
*Element, type=CPE4I
   1,    1,    7, 2006, 1006
   2,    7,    2,    8, 2006
   3, 1006, 2006, 2007, 1005
   4, 2006,    8,    9, 2007
   5, 1005, 2007, 2008, 1004
   6, 2007,    9,   10, 2008
   7, 1004, 2008, 2009, 1003
   8, 2008,   10,   11, 2009
   9, 1003, 2009, 2010, 1002
  10, 2009,   11,   12, 2010
  11, 1002, 2010, 2011, 1001
  12, 2010,   12,   13, 2011
  13, 1001, 2011, 2012, 1000
  14, 2011,   13,   14, 2012
  15, 1000, 2012, 2013,  999
  16, 2012,   14,   15, 2013
  17,  999, 2013, 2014,  998
  18, 2013,   15,   16, 2014
  19,  998, 2014, 2015,  997
  20, 2014,   16,   17, 2015
** ... 1980 like lines cut
*Nset, nset=Set-1, generate
    1,  3003,     1
*Elset, elset=Set-1, generate
    1,  2000,     1
** Section: Adherend
*Solid Section, elset=Set-1, material=Adherend
1.,
*End Part
**  
*Part, name=Thin_Film
*Node
      1,   14.5165148,           1.
      2,          15.,           1.
      3,          15.,           6.
      4,   14.6000004,   1.39999998
      5,   14.6000004,           6.
      6,          14.,  0.483484864
      7,          14.,           0.
      8,   13.6000004,  0.400000006
      9,         -36.,  0.400000006
     10,         -36.,           0.
     11,   14.5970955,           1.
     12,   14.6776772,           1.
     13,   14.7582579,           1.
     14,   14.8388386,           1.
     15,   14.9194193,           1.
     16,          15.,   1.10000002
     17,          15.,   1.20000005
     18,          15.,   1.29999995
     19,          15.,   1.39999998
     20,          15.,          1.5
** ... 3949 like lines cut
*Element, type=CPE4I
  1,    1,   11, 1155,   72
  2,   11,   12, 1156, 1155
  3,   12,   13, 1157, 1156
  4,   13,   14, 1158, 1157
  5,   14,   15, 1159, 1158
  6,   15,    2,   16, 1159
  7,   72, 1155, 1160,   71
  8, 1155, 1156, 1161, 1160
  9, 1156, 1157, 1162, 1161
 10, 1157, 1158, 1163, 1162
 11, 1158, 1159, 1164, 1163
 12, 1159,   16,   17, 1164
 13,   71, 1160, 1165,   70
 14, 1160, 1161, 1166, 1165
 15, 1161, 1162, 1167, 1166
 16, 1162, 1163, 1168, 1167
 17, 1163, 1164, 1169, 1168
 18, 1164,   17,   18, 1169
 19,   70, 1165, 1170,    4
 20, 1165, 1166, 1171, 1170
** ... 3376 like lines cut
*Nset, nset=Set-1, generate
    1,  3969,     1
*Elset, elset=Set-1, generate
    1,  3396,     1
** Section: Adhesive
*Solid Section, elset=Set-1, material=Adhesive
1.,
*End Part
**  
*Part, name=cohesive
*Node
      1,         -30.,   7.30000019
      2,  -29.8999996,   7.30000019
      3,  -29.7999992,   7.30000019
      4,  -29.7000008,   7.30000019
      5,  -29.6000004,   7.30000019
      6,        -29.5,   7.30000019
      7,  -29.3999996,   7.30000019
      8,  -29.2999992,   7.30000019
      9,  -29.2000008,   7.30000019
     10,  -29.1000004,   7.30000019
     11,         -29.,   7.30000019
     12,  -28.8999996,   7.30000019
     13,  -28.7999992,   7.30000019
     14,  -28.7000008,   7.30000019
     15,  -28.6000004,   7.30000019
     16,        -28.5,   7.30000019
     17,  -28.3999996,   7.30000019
     18,  -28.2999992,   7.30000019
     19,  -28.2000008,   7.30000019
     20,  -28.1000004,   7.30000019
** ... 1483 like lines cut
*Element, type=COH2D4
   1,    1,    2,  503,  502
   2,    2,    3,  504,  503
   3,    3,    4,  505,  504
   4,    4,    5,  506,  505
   5,    5,    6,  507,  506
   6,    6,    7,  508,  507
   7,    7,    8,  509,  508
   8,    8,    9,  510,  509
   9,    9,   10,  511,  510
  10,   10,   11,  512,  511
  11,   11,   12,  513,  512
  12,   12,   13,  514,  513
  13,   13,   14,  515,  514
  14,   14,   15,  516,  515
  15,   15,   16,  517,  516
  16,   16,   17,  518,  517
  17,   17,   18,  519,  518
  18,   18,   19,  520,  519
  19,   19,   20,  521,  520
  20,   20,   21,  522,  521
** ... 980 like lines cut
*Nset, nset=Set-1, generate
    1,  1503,     1
*Elset, elset=Set-1, generate
    1,  1000,     1
*Nset, nset=Set-2, generate
    1,  1503,     1
*Elset, elset=Set-2, generate
    1,  1000,     1
** Section: cohesive
*Cohesive Section, elset=Set-2, controls=EC-1, material=cohesive, response=TRACTION SEPARATION, thickness=GEOMETRY
, 1.
*End Part
**  
**
** ASSEMBLY
**
*Assembly, name=Assembly
**  
*Instance, name=Rigid_Substrate-1, part=Rigid_Substrate
*End Instance
**  
*Instance, name=Thin_Film-1, part=Thin_Film
        -14.,          7.2,           0.
*End Instance
**  
*Instance, name=cohesive-1, part=cohesive
        -20.,         -0.3,           0.
*End Instance
**  
*Node
      1,  0.800000012,   15.1999998,           0.
*Node
      2,          55.,          3.5,           0.
*Nset, nset=LOAD-POINT
 1,
*Nset, nset=Set-4, instance=Rigid_Substrate-1, generate
    1,  3003,     1
*Elset, elset=Set-4, instance=Rigid_Substrate-1, generate
    1,  2000,     1
*Nset, nset=Set-5
 1,
*Nset, nset=Set-6
 2,
*Nset, nset=m_Set-2
 1,
*Nset, nset=m_Set-3
 2,
*Elset, elset=_m_Surf-1_S4, internal, instance=Thin_Film-1, generate
  397,  3391,     6
*Surface, type=ELEMENT, name=m_Surf-1
_m_Surf-1_S4, S4
*Elset, elset=_m_Surf-3_S2, internal, instance=Rigid_Substrate-1, generate
    2,  1000,     2
*Surface, type=ELEMENT, name=m_Surf-3
_m_Surf-3_S2, S2
*Elset, elset=_s_Surf-1_S3, internal, instance=cohesive-1, generate
  501,  1000,     1
*Surface, type=ELEMENT, name=s_Surf-1
_s_Surf-1_S3, S3
*Elset, elset=_s_Surf-3_S1, internal, instance=cohesive-1, generate
   1,  500,    1
*Surface, type=ELEMENT, name=s_Surf-3
_s_Surf-3_S1, S1
*Elset, elset=_s_Surf-5_S3, internal, instance=Thin_Film-1, generate
 295,  300,    1
*Surface, type=ELEMENT, name=s_Surf-5
_s_Surf-5_S3, S3
*Elset, elset=_s_Surf-6_S3, internal, instance=Rigid_Substrate-1
 1999, 2000
*Surface, type=ELEMENT, name=s_Surf-6
_s_Surf-6_S3, S3
** Constraint: Constraint-3
*Coupling, constraint name=Constraint-3, ref node=m_Set-2, surface=s_Surf-5
*Kinematic
** Constraint: Constraint-4
*Coupling, constraint name=Constraint-4, ref node=m_Set-3, surface=s_Surf-6
*Kinematic
** Constraint: coh_bot
*Tie, name=coh_bot, adjust=yes
s_Surf-3, m_Surf-3
** Constraint: coh_top
*Tie, name=coh_top, adjust=yes
s_Surf-1, m_Surf-1
*End Assembly
** 
** ELEMENT CONTROLS
** 
*Section Controls, name=EC-1, VISCOSITY=1e-05
1., 1., 1.
** 
** MATERIALS
** 
*Material, name=Adherend
*Elastic
70000., 0.3
*Material, name=Adhesive
*Elastic
1000., 0.33
*Material, name=cohesive
*Damage Initiation, criterion=QUADS
 0.1, 0.1, 0.1
*Damage Evolution, type=ENERGY, mixed mode behavior=BK, power=1.75
 0.12, 0.12, 0.12
*Elastic, type=TRACTION
 3.06, 1.06, 1.06
** 
** BOUNDARY CONDITIONS
** 
** Name: BC-1 Type: Symmetry/Antisymmetry/Encastre
*Boundary
Set-4, YSYMM
** ----------------------------------------------------------------
** 
** STEP: Step-1
** 
*Step, name=Step-1, nlgeom=YES, inc=10000
*Static
1e-05, 10., 1e-15, 10.
** 
** BOUNDARY CONDITIONS
** 
** Name: BC-2 Type: Displacement/Rotation
*Boundary
Set-5, 1, 1
Set-5, 2, 2, 30.
Set-5, 6, 6
** Name: BC-3 Type: Displacement/Rotation
*Boundary
Set-6, 1, 1, 30.
Set-6, 2, 2
Set-6, 6, 6
** 
** OUTPUT REQUESTS
** 
*Restart, write, frequency=0
** 
** FIELD OUTPUT: F-Output-1
** 
*Output, field
*Node Output, variable=PRESELECT
*Element Output, directions=YES
LE, PE, PEEQ, PEMAG, S, STATUS
*Contact Output, variable=PRESELECT
** 
** HISTORY OUTPUT: H-Output-1
** 
*Output, history
*Node Output, nset=LOAD-POINT
RF2, U2
*End Step
