*Heading
** Job name: Job-25-DYNA-EXPL Model name: Model-DYNAMIC-EXPLICIT
** Generated by: Abaqus/CAE 2025
*Preprint, echo=NO, model=NO, history=NO, contact=NO
**
** PARTS
**
*Part, name=Rigid_Substrate
*Node
      1,           0.,           0.
      2,           0.,           7.
      3,         -50.,           7.
      4,         -50.,           0.
      5,          50.,           0.
      6,          50.,           7.
      7,           0.,          3.5
      8, -0.200000003,           7.
      9, -0.400000006,           7.
     10, -0.600000024,           7.
     11, -0.800000012,           7.
     12,          -1.,           7.
     13,  -1.20000005,           7.
     14,  -1.39999998,           7.
     15,  -1.60000002,           7.
     16,  -1.79999995,           7.
     17,          -2.,           7.
     18,  -2.20000005,           7.
     19,   -2.4000001,           7.
     20,   -2.5999999,           7.
** ... 1483 like lines cut
*Element, type=CPE4R
  1,    1,    7, 1006,  506
  2,    7,    2,    8, 1006
  3,  506, 1006, 1007,  505
  4, 1006,    8,    9, 1007
  5,  505, 1007, 1008,  504
  6, 1007,    9,   10, 1008
  7,  504, 1008, 1009,  503
  8, 1008,   10,   11, 1009
  9,  503, 1009, 1010,  502
 10, 1009,   11,   12, 1010
 11,  502, 1010, 1011,  501
 12, 1010,   12,   13, 1011
 13,  501, 1011, 1012,  500
 14, 1011,   13,   14, 1012
 15,  500, 1012, 1013,  499
 16, 1012,   14,   15, 1013
 17,  499, 1013, 1014,  498
 18, 1013,   15,   16, 1014
 19,  498, 1014, 1015,  497
 20, 1014,   16,   17, 1015
** ... 980 like lines cut
*Nset, nset=Set-1, generate
    1,  1503,     1
*Elset, elset=Set-1, generate
    1,  1000,     1
** Section: Adherend
*Solid Section, elset=Set-1, material=Adherend
,
*End Part
**  
*Part, name=Thin_Film
*Node
      1,   14.5165148,           1.
      2,          15.,           1.
      3,          15.,           6.
      4,   14.6000004,   1.39999998
      5,   14.6000004,           6.
      6,          14.,  0.483484864
      7,          14.,           0.
      8,   13.6000004,  0.400000006
      9,         -36.,  0.400000006
     10,         -36.,           0.
     11,   14.5970955,           1.
     12,   14.6776772,           1.
     13,   14.7582579,           1.
     14,   14.8388386,           1.
     15,   14.9194193,           1.
     16,          15.,   1.20000005
     17,          15.,   1.39999998
     18,          15.,   1.60000002
     19,          15.,   1.79999995
     20,          15.,           2.
** ... 1968 like lines cut
*Element, type=CPE4R
  1,   1,  11, 589,  45
  2,  11,  12, 590, 589
  3,  12,  13, 591, 590
  4,  13,  14, 592, 591
  5,  14,  15, 593, 592
  6,  15,   2,  16, 593
  7,  45, 589, 594,   4
  8, 589, 590, 595, 594
  9, 590, 591, 596, 595
 10, 591, 592, 597, 596
 11, 592, 593, 598, 597
 12, 593,  16,  17, 598
 13,   4, 594, 599,  67
 14, 594, 595, 600, 599
 15, 595, 596, 601, 600
 16, 596, 597, 602, 601
 17, 597, 598, 603, 602
 18, 598,  17,  18, 603
 19,  67, 599, 604,  66
 20, 599, 600, 605, 604
** ... 1678 like lines cut
*Nset, nset=Set-1, generate
    1,  1988,     1
*Elset, elset=Set-1, generate
    1,  1698,     1
** Section: Adhesive
*Solid Section, elset=Set-1, material=Adhesive
,
*End Part
**  
*Part, name=adhesive-middle
*Node
      1,          -5.,   2.70000005
      2,  -5.19999981,   2.70000005
      3,   -5.4000001,   2.70000005
      4,   -5.5999999,   2.70000005
      5,  -5.80000019,   2.70000005
      6,          -6.,   2.70000005
      7,  -6.19999981,   2.70000005
      8,   -6.4000001,   2.70000005
      9,   -6.5999999,   2.70000005
     10,  -6.80000019,   2.70000005
     11,          -7.,   2.70000005
     12,  -7.19999981,   2.70000005
     13,   -7.4000001,   2.70000005
     14,   -7.5999999,   2.70000005
     15,  -7.80000019,   2.70000005
     16,          -8.,   2.70000005
     17,  -8.19999981,   2.70000005
     18,  -8.39999962,   2.70000005
     19,  -8.60000038,   2.70000005
     20,  -8.80000019,   2.70000005
** ... 733 like lines cut
*Element, type=CPE4R
  1,   1,   2, 253, 252
  2,   2,   3, 254, 253
  3,   3,   4, 255, 254
  4,   4,   5, 256, 255
  5,   5,   6, 257, 256
  6,   6,   7, 258, 257
  7,   7,   8, 259, 258
  8,   8,   9, 260, 259
  9,   9,  10, 261, 260
 10,  10,  11, 262, 261
 11,  11,  12, 263, 262
 12,  12,  13, 264, 263
 13,  13,  14, 265, 264
 14,  14,  15, 266, 265
 15,  15,  16, 267, 266
 16,  16,  17, 268, 267
 17,  17,  18, 269, 268
 18,  18,  19, 270, 269
 19,  19,  20, 271, 270
 20,  20,  21, 272, 271
** ... 480 like lines cut
*Nset, nset=Set-1, generate
   1,  753,    1
*Elset, elset=Set-1, generate
   1,  500,    1
** Section: hyper-elastic
*Solid Section, elset=Set-1, material=adhesive-middle
,
*End Part
**  
*Part, name=cohesive
*Node
      1,         -30.,   7.44999981
      2,  -29.7999992,   7.44999981
      3,  -29.6000004,   7.44999981
      4,  -29.3999996,   7.44999981
      5,  -29.2000008,   7.44999981
      6,         -29.,   7.44999981
      7,  -28.7999992,   7.44999981
      8,  -28.6000004,   7.44999981
      9,  -28.3999996,   7.44999981
     10,  -28.2000008,   7.44999981
     11,         -28.,   7.44999981
     12,  -27.7999992,   7.44999981
     13,  -27.6000004,   7.44999981
     14,  -27.3999996,   7.44999981
     15,  -27.2000008,   7.44999981
     16,         -27.,   7.44999981
     17,  -26.7999992,   7.44999981
     18,  -26.6000004,   7.44999981
     19,  -26.3999996,   7.44999981
     20,  -26.2000008,   7.44999981
** ... 482 like lines cut
*Element, type=COH2D4
  1,   1,   2, 253, 252
  2,   2,   3, 254, 253
  3,   3,   4, 255, 254
  4,   4,   5, 256, 255
  5,   5,   6, 257, 256
  6,   6,   7, 258, 257
  7,   7,   8, 259, 258
  8,   8,   9, 260, 259
  9,   9,  10, 261, 260
 10,  10,  11, 262, 261
 11,  11,  12, 263, 262
 12,  12,  13, 264, 263
 13,  13,  14, 265, 264
 14,  14,  15, 266, 265
 15,  15,  16, 267, 266
 16,  16,  17, 268, 267
 17,  17,  18, 269, 268
 18,  18,  19, 270, 269
 19,  19,  20, 271, 270
 20,  20,  21, 272, 271
** ... 230 like lines cut
*Nset, nset=Set-1, generate
   1,  502,    1
*Elset, elset=Set-1, generate
   1,  250,    1
*Nset, nset=Set-2, generate
   1,  502,    1
*Elset, elset=Set-2, generate
   1,  250,    1
** Section: cohesive
*Cohesive Section, elset=Set-2, controls=EC-1, material=cohesive, response=TRACTION SEPARATION, thickness=GEOMETRY
, 
*End Part
**  
**
** ASSEMBLY
**
*Assembly, name=Assembly
**  
*Instance, name=Rigid_Substrate-1, part=Rigid_Substrate
*End Instance
**  
*Instance, name=Thin_Film-1, part=Thin_Film
        -14.,          7.3,           0.
*End Instance
**  
*Instance, name=adhesive-middle-1, part=adhesive-middle
          5.,         4.55,           0.
*End Instance
**  
*Instance, name=cohesive-1, part=cohesive
        -20.,        -0.45,           0.
*End Instance
**  
*Instance, name=cohesive-2, part=cohesive
        -20.,         -0.2,           0.
*End Instance
**  
*Node
      1,          55.,          3.5,           0.
*Node
      2,  0.800000012,   15.3000002,           0.
*Nset, nset=LOAD-POINT
 2,
*Nset, nset=Set-4
 1,
*Nset, nset=Set-5
 2,
*Nset, nset=Set-6, instance=Rigid_Substrate-1, generate
    1,  1503,     1
*Elset, elset=Set-6, instance=Rigid_Substrate-1, generate
    1,  1000,     1
*Nset, nset=Set-7
 1,
*Nset, nset=m_Set-2
 1,
*Nset, nset=m_Set-3
 2,
*Elset, elset=_m_Surf-1_S2, internal, instance=Rigid_Substrate-1, generate
   2,  500,    2
*Surface, type=ELEMENT, name=m_Surf-1
_m_Surf-1_S2, S2
*Elset, elset=_m_Surf-3_S3, internal, instance=adhesive-middle-1, generate
 251,  500,    1
*Surface, type=ELEMENT, name=m_Surf-3
_m_Surf-3_S3, S3
*Elset, elset=_m_Surf-5_S1, internal, instance=adhesive-middle-1, generate
   1,  250,    1
*Surface, type=ELEMENT, name=m_Surf-5
_m_Surf-5_S1, S1
*Elset, elset=_m_Surf-7_S4, internal, instance=Thin_Film-1, generate
  199,  1693,     6
*Surface, type=ELEMENT, name=m_Surf-7
_m_Surf-7_S4, S4
*Elset, elset=_s_Surf-1_S1, internal, instance=cohesive-1, generate
   1,  250,    1
*Surface, type=ELEMENT, name=s_Surf-1
_s_Surf-1_S1, S1
*Elset, elset=_s_Surf-3_S3, internal, instance=cohesive-1, generate
   1,  250,    1
*Surface, type=ELEMENT, name=s_Surf-3
_s_Surf-3_S3, S3
*Elset, elset=_s_Surf-5_S1, internal, instance=cohesive-2, generate
   1,  250,    1
*Surface, type=ELEMENT, name=s_Surf-5
_s_Surf-5_S1, S1
*Elset, elset=_s_Surf-7_S3, internal, instance=cohesive-2, generate
   1,  250,    1
*Surface, type=ELEMENT, name=s_Surf-7
_s_Surf-7_S3, S3
*Elset, elset=_s_Surf-9_S3, internal, instance=Rigid_Substrate-1
  499,  500,  999, 1000
*Surface, type=ELEMENT, name=s_Surf-9
_s_Surf-9_S3, S3
*Elset, elset=_s_Surf-10_S3, internal, instance=Thin_Film-1, generate
 145,  150,    1
*Surface, type=ELEMENT, name=s_Surf-10
_s_Surf-10_S3, S3
** Constraint: Constraint-1
*Tie, name=Constraint-1, adjust=yes
s_Surf-1, m_Surf-1
** Constraint: Constraint-2
*Tie, name=Constraint-2, adjust=yes
s_Surf-3, m_Surf-3
** Constraint: Constraint-3
*Tie, name=Constraint-3, adjust=yes
s_Surf-5, m_Surf-5
** Constraint: Constraint-4
*Tie, name=Constraint-4, adjust=yes
s_Surf-7, m_Surf-7
** Constraint: Constraint-5
*Coupling, constraint name=Constraint-5, ref node=m_Set-2, surface=s_Surf-9
*Kinematic
** Constraint: Constraint-6
*Coupling, constraint name=Constraint-6, ref node=m_Set-3, surface=s_Surf-10
*Kinematic
*End Assembly
** 
** ELEMENT CONTROLS
** 
*Section Controls, name=EC-1, ELEMENT DELETION=YES, MAX DEGRADATION=1.
1., 1., 1.
*Amplitude, name=Amp-1
             0.,              0.,              1.,              1.
** 
** MATERIALS
** 
*Material, name=Adherend
*Density
 2.7e-09,
*Elastic
70000., 0.3
*Material, name=Adhesive
*Density
 1.35e-09,
*Elastic
990., 0.33
*Material, name=adhesive-middle
*Density
 1.35e-09,
*Hyperelastic, arruda-boyce
 1.016, 1867., 0.152
*Material, name=cohesive
*Damage Initiation, criterion=MAXS
 3.62, 2.64, 2.64
*Damage Evolution, type=ENERGY, mixed mode behavior=BK, power=1.75
1., 0.3, 0.3
*Damage Stabilization
0.001
*Density
 1.35e-09,
*Elastic, type=TRACTION
 3.06, 1.06, 1.06
** 
** BOUNDARY CONDITIONS
** 
** Name: BC-3 Type: Symmetry/Antisymmetry/Encastre
*Boundary
Set-6, YSYMM
** ----------------------------------------------------------------
** 
** STEP: Step-1
** 
*Step, name=Step-1, nlgeom=YES
*Dynamic, Explicit
, 1.
*Bulk Viscosity
0.06, 1.2
** Mass Scaling: Semi-Automatic
**               Whole Model
*Fixed Mass Scaling, factor=1.2
** 
** BOUNDARY CONDITIONS
** 
** Name: BC-2 Type: Displacement/Rotation
*Boundary, amplitude=Amp-1
Set-5, 1, 1
Set-5, 2, 2, 50.
Set-5, 6, 6
** Name: BC-4 Type: Displacement/Rotation
*Boundary, amplitude=Amp-1
Set-7, 1, 1, 50.
Set-7, 2, 2
Set-7, 6, 6
** 
** OUTPUT REQUESTS
** 
*Restart, write, number interval=1, time marks=NO
** 
** FIELD OUTPUT: F-Output-1
** 
*Output, field
*Node Output, variable=PRESELECT
*Element Output, directions=YES
EVF, LE, PE, PEEQ, PEEQVAVG, PEVAVG, S, SDEG, STATUS, SVAVG
*Contact Output, variable=PRESELECT
** 
** HISTORY OUTPUT: H-Output-1
** 
*Output, history
*Node Output, nset=LOAD-POINT
RF2, U2
*End Step
