*Heading
** Job name: Job-19-DYNAMIC_IMPL Model name: Model-1-DYNAMIC_IMPLICIT
** Generated by: Abaqus/CAE 2025
*Preprint, echo=NO, model=NO, history=NO, contact=NO
**
** PARTS
**
*Part, name=Rigid_Substrate
*Node
      1,           0.,           0.
      2,           0.,           7.
      3,         -50.,           7.
      4,         -50.,           0.
      5,          50.,           0.
      6,          50.,           7.
      7,           0.,          3.5
      8, -0.00999999978,           7.
      9, -0.0199999996,           7.
     10, -0.0299999993,           7.
     11, -0.0399999991,           7.
     12, -0.0500000007,           7.
     13, -0.0599999987,           7.
     14, -0.0700000003,           7.
     15, -0.0799999982,           7.
     16, -0.0900000036,           7.
     17, -0.100000001,           7.
     18, -0.109999999,           7.
     19, -0.119999997,           7.
     20, -0.129999995,           7.
** ... 29983 like lines cut
*Element, type=CPE4R
    1,     1,     7, 20006, 10006
    2,     7,     2,     8, 20006
    3, 10006, 20006, 20007, 10005
    4, 20006,     8,     9, 20007
    5, 10005, 20007, 20008, 10004
    6, 20007,     9,    10, 20008
    7, 10004, 20008, 20009, 10003
    8, 20008,    10,    11, 20009
    9, 10003, 20009, 20010, 10002
   10, 20009,    11,    12, 20010
   11, 10002, 20010, 20011, 10001
   12, 20010,    12,    13, 20011
   13, 10001, 20011, 20012, 10000
   14, 20011,    13,    14, 20012
   15, 10000, 20012, 20013,  9999
   16, 20012,    14,    15, 20013
   17,  9999, 20013, 20014,  9998
   18, 20013,    15,    16, 20014
   19,  9998, 20014, 20015,  9997
   20, 20014,    16,    17, 20015
** ... 19980 like lines cut
*Nset, nset=Set-1, generate
     1,  30003,      1
*Elset, elset=Set-1, generate
     1,  20000,      1
** Section: Adherend
*Solid Section, elset=Set-1, material=Adherend
0.09,
*End Part
**  
*Part, name=Thin_Film
*Node
      1,   14.5165148,           1.
      2,          15.,           1.
      3,          15.,           6.
      4,   14.6000004,   1.39999998
      5,   14.6000004,           6.
      6,          14.,  0.483484864
      7,          14.,           0.
      8,   13.6000004,  0.400000006
      9,         -36.,  0.400000006
     10,         -36.,           0.
     11,   14.5487471,           1.
     12,   14.5809793,           1.
     13,   14.6132126,           1.
     14,   14.6454449,           1.
     15,   14.6776772,           1.
     16,   14.7099094,           1.
     17,   14.7421417,           1.
     18,    14.774374,           1.
     19,   14.8066063,           1.
     20,   14.8388386,           1.
** ... 90540 like lines cut
*Element, type=CPE4R
   1,     1,    11, 11377,   578
   2,    11,    12, 11378, 11377
   3,    12,    13, 11379, 11378
   4,    13,    14, 11380, 11379
   5,    14,    15, 11381, 11380
   6,    15,    16, 11382, 11381
   7,    16,    17, 11383, 11382
   8,    17,    18, 11384, 11383
   9,    18,    19, 11385, 11384
  10,    19,    20, 11386, 11385
  11,    20,    21, 11387, 11386
  12,    21,    22, 11388, 11387
  13,    22,    23, 11389, 11388
  14,    23,    24, 11390, 11389
  15,    24,     2,    25, 11390
  16,   578, 11377, 11391,   577
  17, 11377, 11378, 11392, 11391
  18, 11378, 11379, 11393, 11392
  19, 11379, 11380, 11394, 11393
  20, 11380, 11381, 11395, 11394
** ... 84865 like lines cut
*Nset, nset=Set-1, generate
     1,  90560,      1
*Elset, elset=Set-1, generate
     1,  84885,      1
** Section: Adhesive
*Solid Section, elset=Set-1, controls=EC-1, material=Adhesive
0.09,
*End Part
**  
**
** ASSEMBLY
**
*Assembly, name=Assembly
**  
*Instance, name=Rigid_Substrate-1, part=Rigid_Substrate
*End Instance
**  
*Instance, name=Thin_Film-1, part=Thin_Film
        -14.,           7.,           0.
*End Instance
**  
*Node
      1,  0.800000012,          14.,           0.
*Nset, nset=LOAD-POINT
 1,
*Nset, nset=Set-3
 1,
*Nset, nset=Set-4, instance=Rigid_Substrate-1, generate
     1,  30003,      1
*Elset, elset=Set-4, instance=Rigid_Substrate-1, generate
     1,  20000,      1
*Nset, nset=m_Set-1
 1,
*Elset, elset=_m_Surf-1_S2, internal, instance=Rigid_Substrate-1, generate
     2,  10000,      2
*Elset, elset=_m_Surf-1_S4, internal, instance=Rigid_Substrate-1, generate
 10001,  19999,      2
*Surface, type=ELEMENT, name=m_Surf-1
_m_Surf-1_S2, S2
_m_Surf-1_S4, S4
*Elset, elset=_s_Surf-1_S2, internal, instance=Thin_Film-1, generate
   15,  9870,    15
*Elset, elset=_s_Surf-1_S4, internal, instance=Thin_Film-1, generate
  9871,  84871,     15
*Surface, type=ELEMENT, name=s_Surf-1
_s_Surf-1_S2, S2
_s_Surf-1_S4, S4
*Elset, elset=_s_Surf-3_S3, internal, instance=Thin_Film-1, generate
 7501,  7515,     1
*Surface, type=ELEMENT, name=s_Surf-3
_s_Surf-3_S3, S3
** Constraint: Constraint-1
*Coupling, constraint name=Constraint-1, ref node=m_Set-1, surface=s_Surf-3
*Kinematic
*End Assembly
** 
** ELEMENT CONTROLS
** 
*Section Controls, name=EC-1, hourglass=ENHANCED
1., 1., 1.
** 
** MATERIALS
** 
*Material, name=Adherend
*Elastic
70000., 0.3
*Material, name=Adhesive
*Density
 0.001,
*Elastic
990., 0.33
** 
** INTERACTION PROPERTIES
** 
*Surface Interaction, name=IntProp-1
25.,
*Cohesive Behavior
*Damage Initiation, criterion=MAXS
 0.099, 0.99,  99.
*Damage Evolution, type=ENERGY, mixed mode behavior=BK, power=1.75
 0.154, 0.22, 0.22
*Damage Stabilization
0.001
** 
** BOUNDARY CONDITIONS
** 
** Name: BC-3 Type: Symmetry/Antisymmetry/Encastre
*Boundary
Set-4, YSYMM
** 
** INTERACTIONS
** 
** Interaction: Int-1
*Contact Pair, interaction=IntProp-1, small sliding, type=SURFACE TO SURFACE
s_Surf-1, m_Surf-1
** ----------------------------------------------------------------
** 
** STEP: Step-1
** 
*Step, name=Step-1, nlgeom=YES, inc=10000
*Dynamic,application=QUASI-STATIC,initial=NO
1e-05,0.1,1e-15
** 
** BOUNDARY CONDITIONS
** 
** Name: BC-2 Type: Displacement/Rotation
*Boundary
Set-3, 1, 1
Set-3, 2, 2, 50.
Set-3, 6, 6
** 
** OUTPUT REQUESTS
** 
*Restart, write, frequency=0
** 
** FIELD OUTPUT: F-Output-1
** 
*Output, field
*Node Output, variable=PRESELECT
*Element Output, directions=YES, variable=PRESELECT
*Contact Output
CDISP, CSDMG, CSMAXSCRT, CSMAXUCRT, CSTRESS
** 
** HISTORY OUTPUT: H-Output-1
** 
*Output, history
*Node Output, nset=LOAD-POINT
RF2, U2
*End Step
